10
Acetona
C         -7.58227        0.98641       -0.00504
C         -6.25260        1.70374        0.06162
H         -7.58810        0.13247        0.67601
H         -7.76060        0.62035       -1.01843
H         -8.39587        1.65959        0.27518
C         -5.02467        0.82421       -0.01414
H         -4.98511        0.15781        0.85028
H         -4.11660        1.43157       -0.02994
H         -5.05296        0.21353       -0.91926
O         -6.17604        2.91420        0.12373
