15
Butan-2-ol
C         -7.25705        1.03681       -0.00824
C         -6.08528        2.01496        0.06119
H         -7.20605        0.30466        0.82522
H         -7.24629        0.49041       -0.97534
H         -8.21285        1.59616        0.07288
C         -4.73151        1.29745       -0.06196
H         -6.13236        2.56734        1.02537
H         -6.19188        2.74641       -0.76977
C         -3.58358        2.30901       -0.03401
H         -4.71461        0.75648       -1.03766
O         -4.58201        0.38895        0.99855
H         -3.68457        3.03010       -0.87305
H         -2.61247        1.78082       -0.14094
H         -3.58142        2.86826        0.92613
H         -3.90972       -0.28234        0.70995
