14
Butano
C         -7.21700        1.02255        0.01181
C         -6.04700        2.00074        0.06208
H         -7.15195        0.29922        0.85245
H         -7.21408        0.46614       -0.94971
H         -8.17304        1.58094        0.09648
C         -4.70682        1.26592       -0.05218
H         -6.08670        2.55852        1.02320
H         -6.14870        2.72511       -0.77542
C         -3.53682        2.24411       -0.00191
H         -3.53974        2.80052        0.95961
H         -3.60187        2.96744       -0.84255
H         -2.58078        1.68572       -0.08659
H         -4.66712        0.70814       -1.01331
H         -4.60512        0.54155        0.78531
