11
Propano
C         -6.30847        1.57788        0.02994
C         -4.99909        2.34949        0.16338
H         -6.33160        0.72972        0.74704
H         -6.42196        1.18577       -1.00327
H         -7.16218        2.25297        0.24991
C         -3.79744        1.45679       -0.13125
H         -4.91349        2.74833        1.19718
H         -5.00361        3.20311       -0.54827
H         -3.76442        0.60592        0.58225
H         -2.86192        2.04559       -0.02614
H         -3.85479        1.06197       -1.16807
