12
Propan-2-ol
C         -6.31598        1.53857        0.06019
C         -5.00007        2.31425        0.17453
H         -6.32635        0.69203        0.77948
H         -6.44601        1.13768       -0.96782
H         -7.16950        2.20994        0.29306
C         -3.78994        1.41676       -0.10196
H         -4.91493        2.69390        1.21572
O         -5.00225        3.42131       -0.69109
H         -3.76907        0.56871        0.61531
H         -2.85331        2.00179        0.01599
H         -3.83114        1.01158       -1.13568
H         -5.07844        3.07852       -1.62031
